Version 4
SHEET 1 880 680
WIRE 160 48 80 48
WIRE 288 48 240 48
WIRE 80 64 80 48
WIRE 288 64 288 48
WIRE 288 128 288 112
WIRE 80 192 80 144
WIRE 288 192 288 128
FLAG 80 192 0
FLAG 288 192 0
SYMBOL voltage 80 48 R0
SYMATTR InstName V1
SYMATTR Value AC 1
SYMBOL res 256 32 R90
WINDOW 0 0 56 VBottom 2
WINDOW 3 32 56 VTop 2
SYMATTR InstName R1
SYMATTR Value 2k
SYMBOL cap 272 64 R0
SYMATTR InstName C1
SYMATTR Value 1µ
TEXT 64 -64 Left 2 ;'LOW  PASS  FILTER'
TEXT 48 216 Left 2 !.ac dec 20 1 2K
